instances/data_GOC/Phase_0_Modified_RTS96/scenario_96/powersystem.raw
 0,  100.000000
rts96_spring_wday.raw / File written by to_psse.gms
5 / 19 / 2015
101, ' 101 ',138,2,1,1,1,1.00,0.00,1.1,0.9,1.1,0.9
102, ' 102 ',138,2,1,1,1,1.00,0.00,1.1,0.9,1.1,0.9
103, ' 103 ',138,1,1,1,1,1.00,0.00,1.1,0.9,1.1,0.9
104, ' 104 ',138,1,1,1,1,1.00,0.00,1.1,0.9,1.1,0.9
105, ' 105 ',138,1,1,1,1,1.00,0.00,1.1,0.9,1.1,0.9
106, ' 106 ',138,1,1,1,1,1.00,0.00,1.1,0.9,1.1,0.9
107, ' 107 ',138,2,1,1,1,1.00,0.00,1.1,0.9,1.1,0.9
108, ' 108 ',138,1,1,1,1,1.00,0.00,1.1,0.9,1.1,0.9
109, ' 109 ',138,1,1,1,1,1.00,0.00,1.1,0.9,1.1,0.9
110, ' 110 ',138,1,1,1,1,1.00,0.00,1.1,0.9,1.1,0.9
111, ' 111 ',230,1,1,1,1,1.00,0.00,1.1,0.9,1.1,0.9
112, ' 112 ',230,1,1,1,1,1.00,0.00,1.1,0.9,1.1,0.9
113, ' 113 ',230,3,1,1,1,1.00,0.00,1.1,0.9,1.1,0.9
114, ' 114 ',230,2,1,1,1,1.00,0.00,1.1,0.9,1.1,0.9
115, ' 115 ',230,2,1,1,1,1.00,0.00,1.1,0.9,1.1,0.9
116, ' 116 ',230,2,1,1,1,1.00,0.00,1.1,0.9,1.1,0.9
117, ' 117 ',230,1,1,1,1,1.00,0.00,1.1,0.9,1.1,0.9
118, ' 118 ',230,2,1,1,1,1.00,0.00,1.1,0.9,1.1,0.9
119, ' 119 ',230,1,1,1,1,1.00,0.00,1.1,0.9,1.1,0.9
120, ' 120 ',230,1,1,1,1,1.00,0.00,1.1,0.9,1.1,0.9
121, ' 121 ',230,2,1,1,1,1.00,0.00,1.1,0.9,1.1,0.9
122, ' 122 ',230,2,1,1,1,1.00,0.00,1.1,0.9,1.1,0.9
123, ' 123 ',230,2,1,1,1,1.00,0.00,1.1,0.9,1.1,0.9
124, ' 124 ',230,1,1,1,1,1.00,0.00,1.1,0.9,1.1,0.9
201, ' 201 ',138,2,1,1,1,1.00,0.00,1.1,0.9,1.1,0.9
202, ' 202 ',138,2,1,1,1,1.00,0.00,1.1,0.9,1.1,0.9
203, ' 203 ',138,1,1,1,1,1.00,0.00,1.1,0.9,1.1,0.9
204, ' 204 ',138,1,1,1,1,1.00,0.00,1.1,0.9,1.1,0.9
205, ' 205 ',138,1,1,1,1,1.00,0.00,1.1,0.9,1.1,0.9
206, ' 206 ',138,1,1,1,1,1.00,0.00,1.1,0.9,1.1,0.9
207, ' 207 ',138,2,1,1,1,1.00,0.00,1.1,0.9,1.1,0.9
208, ' 208 ',138,1,1,1,1,1.00,0.00,1.1,0.9,1.1,0.9
209, ' 209 ',138,1,1,1,1,1.00,0.00,1.1,0.9,1.1,0.9
210, ' 210 ',138,1,1,1,1,1.00,0.00,1.1,0.9,1.1,0.9
211, ' 211 ',230,1,1,1,1,1.00,0.00,1.1,0.9,1.1,0.9
212, ' 212 ',230,1,1,1,1,1.00,0.00,1.1,0.9,1.1,0.9
213, ' 213 ',230,2,1,1,1,1.00,0.00,1.1,0.9,1.1,0.9
214, ' 214 ',230,2,1,1,1,1.00,0.00,1.1,0.9,1.1,0.9
215, ' 215 ',230,2,1,1,1,1.00,0.00,1.1,0.9,1.1,0.9
216, ' 216 ',230,2,1,1,1,1.00,0.00,1.1,0.9,1.1,0.9
217, ' 217 ',230,1,1,1,1,1.00,0.00,1.1,0.9,1.1,0.9
218, ' 218 ',230,2,1,1,1,1.00,0.00,1.1,0.9,1.1,0.9
219, ' 219 ',230,1,1,1,1,1.00,0.00,1.1,0.9,1.1,0.9
220, ' 220 ',230,1,1,1,1,1.00,0.00,1.1,0.9,1.1,0.9
221, ' 221 ',230,2,1,1,1,1.00,0.00,1.1,0.9,1.1,0.9
222, ' 222 ',230,2,1,1,1,1.00,0.00,1.1,0.9,1.1,0.9
223, ' 223 ',230,2,1,1,1,1.00,0.00,1.1,0.9,1.1,0.9
224, ' 224 ',230,1,1,1,1,1.00,0.00,1.1,0.9,1.1,0.9
301, ' 301 ',138,2,1,1,1,1.00,0.00,1.1,0.9,1.1,0.9
302, ' 302 ',138,2,1,1,1,1.00,0.00,1.1,0.9,1.1,0.9
303, ' 303 ',138,1,1,1,1,1.00,0.00,1.1,0.9,1.1,0.9
304, ' 304 ',138,1,1,1,1,1.00,0.00,1.1,0.9,1.1,0.9
305, ' 305 ',138,1,1,1,1,1.00,0.00,1.1,0.9,1.1,0.9
306, ' 306 ',138,1,1,1,1,1.00,0.00,1.1,0.9,1.1,0.9
307, ' 307 ',138,2,1,1,1,1.00,0.00,1.1,0.9,1.1,0.9
308, ' 308 ',138,1,1,1,1,1.00,0.00,1.1,0.9,1.1,0.9
309, ' 309 ',138,1,1,1,1,1.00,0.00,1.1,0.9,1.1,0.9
310, ' 310 ',138,1,1,1,1,1.00,0.00,1.1,0.9,1.1,0.9
311, ' 311 ',230,1,1,1,1,1.00,0.00,1.1,0.9,1.1,0.9
312, ' 312 ',230,1,1,1,1,1.00,0.00,1.1,0.9,1.1,0.9
313, ' 313 ',230,2,1,1,1,1.00,0.00,1.1,0.9,1.1,0.9
314, ' 314 ',230,2,1,1,1,1.00,0.00,1.1,0.9,1.1,0.9
315, ' 315 ',230,2,1,1,1,1.00,0.00,1.1,0.9,1.1,0.9
316, ' 316 ',230,2,1,1,1,1.00,0.00,1.1,0.9,1.1,0.9
317, ' 317 ',230,1,1,1,1,1.00,0.00,1.1,0.9,1.1,0.9
318, ' 318 ',230,2,1,1,1,1.00,0.00,1.1,0.9,1.1,0.9
319, ' 319 ',230,1,1,1,1,1.00,0.00,1.1,0.9,1.1,0.9
320, ' 320 ',230,1,1,1,1,1.00,0.00,1.1,0.9,1.1,0.9
321, ' 321 ',230,2,1,1,1,1.00,0.00,1.1,0.9,1.1,0.9
322, ' 322 ',230,2,1,1,1,1.00,0.00,1.1,0.9,1.1,0.9
323, ' 323 ',230,2,1,1,1,1.00,0.00,1.1,0.9,1.1,0.9
324, ' 324 ',230,1,1,1,1,1.00,0.00,1.1,0.9,1.1,0.9
325, ' 325 ',230,1,1,1,1,1.00,0.00,1.1,0.9,1.1,0.9
0 / END OF BUS DATA, BEGIN LOAD DATA
101, '1 ',1,11,11,96.1672953495428,12.959877988538146,0.0,0.0,0.0,0.0,1,1,0
102, '1 ',1,11,12,53.31698255921994,17.429666560292244,0.0,0.0,0.0,0.0,1,1,0
103, '1 ',1,11,11,87.92021930987386,20.839827141460912,0.0,0.0,0.0,0.0,1,1,0
104, '1 ',1,11,11,39.964642742068406,11.58671421803534,0.0,0.0,0.0,0.0,1,1,0
105, '1 ',1,11,11,62.55082113473383,12.487093210633658,0.0,0.0,0.0,0.0,1,1,0
106, '1 ',1,11,12,107.40762780244276,22.777701622959786,0.0,0.0,0.0,0.0,1,1,0
107, '1 ',1,11,12,81.45582670686417,17.46525113885058,0.0,0.0,0.0,0.0,1,1,0
108, '1 ',1,11,12,120.6917682240165,19.01309089748561,0.0,0.0,0.0,0.0,1,1,0
109, '1 ',1,11,13,143.89111189017305,25.005161967817134,0.0,0.0,0.0,0.0,1,1,0
110, '1 ',1,11,13,125.8531765255595,27.76313901213929,0.0,0.0,0.0,0.0,1,1,0
111, '1 ',1,11,13,0.0,0.0,0.0,0.0,0.0,0.0,1,1,0
112, '1 ',1,11,13,0.0,0.0,0.0,0.0,0.0,0.0,1,1,0
113, '1 ',1,12,14,194.6148049584136,27.450544095910523,0.0,0.0,0.0,0.0,1,1,0
114, '1 ',1,12,16,150.60820936586364,22.629975422947762,0.0,0.0,0.0,0.0,1,1,0
115, '1 ',1,12,16,165.46025576134454,40.326394633966686,0.0,0.0,0.0,0.0,1,1,0
116, '1 ',1,12,16,54.61014499135315,11.23926367231272,0.0,0.0,0.0,0.0,1,1,0
117, '1 ',1,12,17,0.0,0.0,0.0,0.0,0.0,0.0,1,1,0
118, '1 ',1,12,17,176.40993795386774,59.02878847989422,0.0,0.0,0.0,0.0,1,1,0
119, '1 ',1,12,15,146.52532196745327,24.970165509969927,0.0,0.0,0.0,0.0,1,1,0
120, '1 ',1,12,15,68.70250683909057,17.65343487017071,0.0,0.0,0.0,0.0,1,1,0
121, '1 ',1,12,17,0.0,0.0,0.0,0.0,0.0,0.0,1,1,0
122, '1 ',1,12,17,0.0,0.0,0.0,0.0,0.0,0.0,1,1,0
123, '1 ',1,12,15,0.0,0.0,0.0,0.0,0.0,0.0,1,1,0
124, '1 ',1,12,16,0.0,0.0,0.0,0.0,0.0,0.0,1,1,0
201, '1 ',1,21,21,80.41832749319337,17.26690242607277,0.0,0.0,0.0,0.0,1,1,0
202, '1 ',1,21,22,76.79693661038415,17.748957414390517,0.0,0.0,0.0,0.0,1,1,0
203, '1 ',1,21,21,132.09873309882357,19.557029774946205,0.0,0.0,0.0,0.0,1,1,0
204, '1 ',1,21,21,65.69251064837258,8.410459335427264,0.0,0.0,0.0,0.0,1,1,0
205, '1 ',1,21,21,52.64738516034787,6.920636522274278,0.0,0.0,0.0,0.0,1,1,0
206, '1 ',1,21,22,88.17154461170622,17.93507906896211,0.0,0.0,0.0,0.0,1,1,0
207, '1 ',1,21,22,99.00063929189345,20.633650668044574,0.0,0.0,0.0,0.0,1,1,0
208, '1 ',1,21,22,126.50276815228905,25.25223182877945,0.0,0.0,0.0,0.0,1,1,0
209, '1 ',1,21,23,153.96939906943473,18.036780076798795,0.0,0.0,0.0,0.0,1,1,0
210, '1 ',1,21,23,95.77347496939076,24.954362369952722,0.0,0.0,0.0,0.0,1,1,0
211, '1 ',1,21,23,0.0,0.0,0.0,0.0,0.0,0.0,1,1,0
212, '1 ',1,21,23,0.0,0.0,0.0,0.0,0.0,0.0,1,1,0
213, '1 ',1,22,24,160.05077226720124,36.41992064961846,0.0,0.0,0.0,0.0,1,1,0
214, '1 ',1,22,26,143.6770587403044,22.28706326080668,0.0,0.0,0.0,0.0,1,1,0
215, '1 ',1,22,26,207.90649331045194,42.619013477057216,0.0,0.0,0.0,0.0,1,1,0
216, '1 ',1,22,26,54.6944457190996,16.397656126965767,0.0,0.0,0.0,0.0,1,1,0
217, '1 ',1,22,27,0.0,0.0,0.0,0.0,0.0,0.0,1,1,0
218, '1 ',1,22,27,199.1116068411362,51.08107639257108,0.0,0.0,0.0,0.0,1,1,0
219, '1 ',1,22,25,149.00806579018166,22.965008401716172,0.0,0.0,0.0,0.0,1,1,0
220, '1 ',1,22,25,111.18975986588,16.01079492658591,0.0,0.0,0.0,0.0,1,1,0
221, '1 ',1,22,27,0.0,0.0,0.0,0.0,0.0,0.0,1,1,0
222, '1 ',1,22,27,0.0,0.0,0.0,0.0,0.0,0.0,1,1,0
223, '1 ',1,22,25,0.0,0.0,0.0,0.0,0.0,0.0,1,1,0
224, '1 ',1,22,26,0.0,0.0,0.0,0.0,0.0,0.0,1,1,0
301, '1 ',1,31,31,74.83882660740595,13.787933567145187,0.0,0.0,0.0,0.0,1,1,0
302, '1 ',1,31,32,72.51837352771852,14.233757178992963,0.0,0.0,0.0,0.0,1,1,0
303, '1 ',1,31,31,120.06281437510717,19.743399067135993,0.0,0.0,0.0,0.0,1,1,0
304, '1 ',1,31,31,52.52972290509072,11.936660680913832,0.0,0.0,0.0,0.0,1,1,0
305, '1 ',1,31,31,58.88961586581753,10.077089115901943,0.0,0.0,0.0,0.0,1,1,0
306, '1 ',1,31,32,79.74880894154124,19.609993042841925,0.0,0.0,0.0,0.0,1,1,0
307, '1 ',1,31,32,74.01546435997007,15.909622502223355,0.0,0.0,0.0,0.0,1,1,0
308, '1 ',1,31,32,114.42750345084741,18.40134964428213,0.0,0.0,0.0,0.0,1,1,0
309, '1 ',1,31,33,134.12795704396908,26.004738766715302,0.0,0.0,0.0,0.0,1,1,0
310, '1 ',1,31,33,110.17122560945595,20.6454369926434,0.0,0.0,0.0,0.0,1,1,0
311, '1 ',1,31,33,0.0,0.0,0.0,0.0,0.0,0.0,1,1,0
312, '1 ',1,31,33,0.0,0.0,0.0,0.0,0.0,0.0,1,1,0
313, '1 ',1,32,34,213.56507647491551,45.2061158381911,0.0,0.0,0.0,0.0,1,1,0
314, '1 ',1,32,36,99.35711982193719,19.76829700865317,0.0,0.0,0.0,0.0,1,1,0
315, '1 ',1,32,36,225.87543470542127,48.87957368255854,0.0,0.0,0.0,0.0,1,1,0
316, '1 ',1,32,36,72.29206488509662,11.032569285412318,0.0,0.0,0.0,0.0,1,1,0
317, '1 ',1,32,37,0.0,0.0,0.0,0.0,0.0,0.0,1,1,0
318, '1 ',1,32,37,179.83009955367226,51.426704960782644,0.0,0.0,0.0,0.0,1,1,0
319, '1 ',1,32,35,127.32675354974718,26.063846969906518,0.0,0.0,0.0,0.0,1,1,0
320, '1 ',1,32,35,90.4883267279148,21.79536429736801,0.0,0.0,0.0,0.0,1,1,0
321, '1 ',1,32,37,0.0,0.0,0.0,0.0,0.0,0.0,1,1,0
322, '1 ',1,32,37,0.0,0.0,0.0,0.0,0.0,0.0,1,1,0
323, '1 ',1,32,35,0.0,0.0,0.0,0.0,0.0,0.0,1,1,0
324, '1 ',1,32,36,0.0,0.0,0.0,0.0,0.0,0.0,1,1,0
325, '1 ',1,32,35,0.0,0.0,0.0,0.0,0.0,0.0,1,1,0
0 / END OF LOAD DATA, BEGIN FIXED SHUNT DATA
0 / END OF FIXED SHUNT DATA, BEGIN GENERATOR DATA
101,1,10,0,7.560076836496591,-2.262310091871769,1.035,0,24,0,1,0,0,1,1,100,14.943691072054206,9.924038731027395,1,1,0,1
101,2,10,0,8.851089787203819,-0.878913251683116,1.035,0,24,0,1,0,0,1,1,100,14.282321486622093,10.74663619714789,1,1,0,1
101,3,76,14.1,26.731970636174083,-26.976230770349503,1.035,0,89,0,1,0,0,1,1,100,77.49025323688984,9.323564380854364,1,1,0,1
101,4,76,14.1,31.98918987857178,-30.020522384671494,1.035,0,89,0,1,0,0,1,1,100,92.12056605704129,35.24475070111453,1,1,0,1
102,5,10,0,12.076850252691656,2.7608536407351494,1.035,0,24,0,1,0,0,1,1,100,23.441999776288867,18.50451594426297,1,1,0,1
102,6,10,0,8.59160304395482,-0.7690081796608865,1.035,0,24,0,1,0,0,1,1,100,20.97993408050388,17.65805573893711,1,1,0,1
102,7,76,7,26.25751234497875,-16.90909451735206,1.035,0,89,0,1,0,0,1,1,100,74.36561546828598,28.39685722049326,1,1,0,1
102,8,76,7,21.373822923749685,-27.16821071249433,1.035,0,89,0,1,0,0,1,1,100,77.71206074710936,4.249110150001954,1,1,0,1
107,9,80,17.2,66.69801759906113,2.8998005893081427,1.025,0,118,0,1,0,0,1,1,100,128.91982683446258,71.04846990900114,1,1,0,1
107,10,80,17.2,77.40149027109146,13.71717375330627,1.025,0,118,0,1,0,0,1,1,100,83.82741467561571,26.746817402308793,1,1,0,1
107,11,80,17.2,74.2017187261954,2.3891836060211062,1.025,0,118,0,1,0,0,1,1,100,72.7794518461451,69.17836797933612,1,1,0,1
113,12,95.1,40.7,99.10692660510541,-2.830155964940772,1.02,0,232,0,1,0,0,1,1,100,203.36838301327077,83.87967678134792,1,1,0,1
113,13,95.1,40.7,79.8676316216588,8.4798535220325,1.02,0,232,0,1,0,0,1,1,100,209.6891426775139,82.73114295566455,1,1,0,1
113,14,95.1,40.7,99.64107882976532,0.4267929643392563,1.02,0,232,0,1,0,0,1,1,100,223.61007000654934,70.32476231096075,1,1,0,1
114,15,0,13.7,167.75513994507492,-46.78957018768415,0.98,0,100,0,1,0,0,1,1,100,0.0,0.0,1,1,0,1
115,16,12,0,7.220844687335194,2.7184805751778196,1.014,0,14,0,1,0,0,1,1,100,11.647766560502351,3.774623982645573,1,1,0,1
115,17,12,0,7.515769826062025,2.518730332609268,1.014,0,14,0,1,0,0,1,1,100,9.748315517418085,9.612290383989961,1,1,0,1
115,18,12,0,7.687909686472267,0.936924114078284,1.014,0,14,0,1,0,0,1,1,100,15.083350783959032,4.672072732821109,1,1,0,1
115,19,12,0,6.091910079494119,0.8405667132698005,1.014,0,14,0,1,0,0,1,1,100,15.218349117971956,6.9654860301688295,1,1,0,1
115,20,12,0,7.110849030688406,0.21543607078492766,1.014,0,14,0,1,0,0,1,1,100,8.563470026291906,0.1550865830853585,1,1,0,1
115,21,155,0.05,76.46630888059735,-32.36756717832759,1.014,0,182,0,1,0,0,1,1,100,194.63351455144584,64.94026346548927,1,1,0,1
116,22,155,25.22,66.86776797100902,-55.554795974399894,1.017,0,182,0,1,0,0,1,1,100,191.468024373753,64.25008224055637,1,1,0,1
118,23,400,137.4,235.0576025992632,3.1670870701782405,1.05,0,471,0,1,0,0,1,1,100,400.63439819961786,52.97882389742881,1,1,0,1
121,24,400,108.2,227.10729761980474,-89.77050514426082,1.05,0,471,0,1,0,0,1,1,100,482.351655960083,210.55714385583997,1,1,0,1
122,25,50,-4.96,20.41740665510297,-3.148567682038994,1.05,0,53,0,1,0,0,1,1,100,47.248189435340464,3.511357340030372,1,1,0,1
122,26,50,-4.96,13.453408128768206,-18.14598982324824,1.05,0,53,0,1,0,0,1,1,100,60.817415795754634,10.850876633572955,1,1,0,1
122,27,50,-4.96,13.409713669866324,-16.07080929512158,1.05,0,53,0,1,0,0,1,1,100,47.59825620567426,5.6160550424829125,1,1,0,1
122,28,50,-4.96,12.846463346481322,-8.486074698902666,1.05,0,53,0,1,0,0,1,1,100,62.21861241618172,19.222644050605602,1,1,0,1
122,29,50,-4.96,14.407349817454815,-12.126097421254961,1.05,0,53,0,1,0,0,1,1,100,56.066907660569996,16.780075903516263,1,1,0,1
122,30,50,-4.96,15.87588210105896,-4.983458049688487,1.05,0,53,0,1,0,0,1,1,100,60.01544488361106,7.660179140511907,1,1,0,1
123,31,155,31.79,86.90774995461106,-67.5146057405509,1.05,0,182,0,1,0,0,1,1,100,164.35666166990995,64.80863078285473,1,1,0,1
123,32,155,31.79,80.61766768619418,-69.55867101438344,1.05,0,182,0,1,0,0,1,1,100,158.97040617489256,77.29823114837055,1,1,0,1
123,33,350,71.78,169.61269790539518,-9.064063190016896,1.05,0,412,0,1,0,0,1,1,100,439.2371524102054,175.32523296913126,1,1,0,1
201,34,10,0,9.648897698614746,-2.2786753261461854,1.035,0,24,0,1,0,0,1,1,100,19.784719268791378,14.415504019698128,1,1,0,1
201,35,10,0,10.442131801042706,2.2982185813598335,1.035,0,24,0,1,0,0,1,1,100,18.850166206248105,14.650575249660761,1,1,0,1
201,36,76,14.1,21.389851092360914,-47.69510102272034,1.035,0,89,0,1,0,0,1,1,100,91.38569543976337,42.186275498904294,1,1,0,1
201,37,76,14.1,38.20627812249586,-5.005343072582036,1.035,0,89,0,1,0,0,1,1,100,65.84158210027962,39.376875299783386,1,1,0,1
202,38,10,0,7.85090791620314,-2.4521050667390236,1.035,0,24,0,1,0,0,1,1,100,18.959135183133185,15.744343503899874,1,1,0,1
202,39,10,0,7.29777146037668,-1.501581670716405,1.035,0,24,0,1,0,0,1,1,100,22.43066934403032,17.42951672261581,1,1,0,1
202,40,76,7,22.32846687734127,-43.666098604910076,1.035,0,89,0,1,0,0,1,1,100,73.28892246112227,4.328491729199882,1,1,0,1
202,41,76,7,33.10843833396211,-13.304684367263683,1.035,0,89,0,1,0,0,1,1,100,59.53771170396357,16.48566300783306,1,1,0,1
207,42,80,17.2,63.29792254138738,12.195685115642846,1.025,0,118,0,1,0,0,1,1,100,102.10666761733592,17.993427709443495,1,1,0,1
207,43,80,17.2,59.14961227029562,13.821450462564826,1.025,0,118,0,1,0,0,1,1,100,105.04331779666245,27.048175634117797,1,1,0,1
207,44,80,17.2,45.749484876170754,-6.450337138026953,1.025,0,118,0,1,0,0,1,1,100,116.3305023359135,63.23433097568343,1,1,0,1
213,45,95.1,40.7,89.55366179719567,21.858072616159916,1.02,0,232,0,1,0,0,1,1,100,245.04289190773852,82.31199448823227,1,1,0,1
213,46,95.1,40.7,84.97124254330993,-17.537196960300207,1.02,0,232,0,1,0,0,1,1,100,239.37583850952797,79.48809407868188,1,1,0,1
213,47,95.1,40.7,79.54347653687,3.9248354136943817,1.02,0,232,0,1,0,0,1,1,100,198.27663359562868,45.700529138497075,1,1,0,1
214,48,0,13.68,241.03487675078216,47.75396014796573,0.98,0,100,0,1,0,0,1,1,100,0.0,0.0,1,1,0,1
215,49,12,0,6.345993042178453,0.5422944207675755,1.014,0,14,0,1,0,0,1,1,100,12.807122511416672,4.187675690799951,1,1,0,1
215,50,12,0,5.188411546871066,-2.315120197646321,1.014,0,14,0,1,0,0,1,1,100,9.851535647548735,2.712297906763852,1,1,0,1
215,51,12,0,4.391602961439639,-3.1430659968405967,1.014,0,14,0,1,0,0,1,1,100,14.338604758121072,3.015356639809907,1,1,0,1
215,52,12,0,7.7090434391051526,2.261664310097694,1.014,0,14,0,1,0,0,1,1,100,11.351076880283653,2.567757277227937,1,1,0,1
215,53,12,0,7.787142235133798,3.090405720379205,1.014,0,14,0,1,0,0,1,1,100,9.922487490624189,8.692592459321238,1,1,0,1
215,54,155,0.048,84.16546022891998,-31.20403677923605,1.014,0,182,0,1,0,0,1,1,100,193.39109165268022,62.79753315637356,1,1,0,1
216,55,155,25.22,95.82199622318149,-40.0271226298064,1.017,0,182,0,1,0,0,1,1,100,181.04554373258725,87.22154937993037,1,1,0,1
218,56,400,137.4,239.55135406926274,-39.90644589299336,1.05,0,471,0,1,0,0,1,1,100,383.3691658452153,132.89760353043678,1,1,0,1
221,57,400,108.2,152.90027011185882,-41.91774039529267,1.05,0,471,0,1,0,0,1,1,100,362.0877564884722,50.091801304370165,1,1,0,1
222,58,50,-4.96,11.271977043151855,-12.452376466616988,1.05,0,53,0,1,0,0,1,1,100,48.575994949787855,33.699955943419106,1,1,0,1
222,59,50,-4.96,20.204661095887424,-9.68743334142491,1.05,0,53,0,1,0,0,1,1,100,50.06338960956782,35.38914163203558,1,1,0,1
222,60,50,-4.96,18.458530309051277,-10.650608059391377,1.05,0,53,0,1,0,0,1,1,100,62.292012386024,12.961914259940386,1,1,0,1
222,61,50,-4.96,14.432157318294049,-13.515582059230656,1.05,0,53,0,1,0,0,1,1,100,60.246116667985916,8.346584443934255,1,1,0,1
222,62,50,-4.96,12.613813360035419,-19.61340027628467,1.05,0,53,0,1,0,0,1,1,100,47.609047836158425,15.853113247712292,1,1,0,1
222,63,50,-4.96,15.146037873625755,-8.983278571255504,1.05,0,53,0,1,0,0,1,1,100,44.058534449432045,3.8457784918136966,1,1,0,1
223,64,155,31.79,100.73504362627865,-50.43183484114705,1.05,0,182,0,1,0,0,1,1,100,133.6972635947168,58.728152143862104,1,1,0,1
223,65,155,31.79,96.27993609383702,-33.906644232571125,1.05,0,182,0,1,0,0,1,1,100,165.05813762405887,62.47314753299578,1,1,0,1
223,66,350,71.78,135.00569972908124,-33.104770868085325,1.05,0,412,0,1,0,0,1,1,100,419.1770957852714,164.65050821611655,1,1,0,1
301,67,10,0,8.093457210808992,-2.2265049680136144,1.035,0,24,0,1,0,0,1,1,100,20.11634457949549,15.648095129998401,1,1,0,1
301,68,10,0,10.919832518324256,-0.37346951896324754,1.035,0,24,0,1,0,0,1,1,100,20.07852352410555,15.03833725821227,1,1,0,1
301,69,76,14.1,27.809438003227115,-32.27509025717154,1.035,0,89,0,1,0,0,1,1,100,74.4400686999783,25.443979159407327,1,1,0,1
301,70,76,14.1,25.335714576300234,-27.092409257544197,1.035,0,89,0,1,0,0,1,1,100,71.61809622347354,25.051201990246767,1,1,0,1
302,71,10,0,10.104586870409548,1.2610602239146829,1.035,0,24,0,1,0,0,1,1,100,24.53976688347757,20.03682824273594,1,1,0,1
302,72,10,0,7.401485510636121,-1.3393581239506602,1.035,0,24,0,1,0,0,1,1,100,24.917172989808023,20.385148055832836,1,1,0,1
302,73,76,7,30.815058007836345,-10.943683160236095,1.035,0,89,0,1,0,0,1,1,100,80.12402073275298,17.79505600955337,1,1,0,1
302,74,76,7,28.120111781638116,-18.143972172867507,1.035,0,89,0,1,0,0,1,1,100,90.07996680550276,39.27503839872777,1,1,0,1
307,75,80,17.2,44.11248444300144,-27.68601352907718,1.025,0,118,0,1,0,0,1,1,100,118.26264716219157,57.754378063837066,1,1,0,1
307,76,80,17.2,61.8098214128986,14.153972086496651,1.025,0,118,0,1,0,0,1,1,100,124.48513218667358,30.331855090334997,1,1,0,1
307,77,80,17.2,49.49446725379675,-1.7220818046480488,1.025,0,118,0,1,0,0,1,1,100,122.30038860812785,57.677288072882234,1,1,0,1
313,78,95.1,40.7,93.05057712644339,-7.654671180993333,1.02,0,232,0,1,0,0,1,1,100,212.35667089475317,120.31611760282188,1,1,0,1
313,79,95.1,40.7,77.6144240014255,1.0839064568281174,1.02,0,232,0,1,0,0,1,1,100,192.38010020903312,70.0321849703579,1,1,0,1
313,80,95.1,40.7,88.29026671871543,-3.882470391690731,1.02,0,232,0,1,0,0,1,1,100,155.3452545987442,38.878150558737076,1,1,0,1
314,81,0,13.68,166.98106333613393,-38.80688469391316,0.98,0,100,0,1,0,0,1,1,100,0.0,0.0,1,1,0,1
315,82,12,0,7.392832634132355,0.2453684957697977,1.014,0,14,0,1,0,0,1,1,100,10.888401426002382,2.284439428523182,1,1,0,1
315,83,12,0,5.805348982941359,-1.4818428098224112,1.014,0,14,0,1,0,0,1,1,100,10.588806594908238,0.5369868394732489,1,1,0,1
315,84,12,0,4.758434551488608,-1.5321831095963718,1.014,0,14,0,1,0,0,1,1,100,9.960702349059282,2.933590556471174,1,1,0,1
315,85,12,0,7.37212694277987,2.7458344551734637,1.014,0,14,0,1,0,0,1,1,100,10.335577486641704,0.42105057198554086,1,1,0,1
315,86,12,0,6.903997514862567,1.4679596750065684,1.014,0,14,0,1,0,0,1,1,100,13.085673786699772,3.090558979511263,1,1,0,1
315,87,155,0.048,68.43142769858241,-81.24612246546894,1.014,0,182,0,1,0,0,1,1,100,170.86344155622646,42.540743573545484,1,1,0,1
316,88,155,25.22,88.4854344278574,-10.67577902926132,1.017,0,182,0,1,0,0,1,1,100,161.77231037640013,47.099335097067524,1,1,0,1
318,89,400,137.4,166.74555339850485,-9.883679973427178,1.05,0,471,0,1,0,0,1,1,100,285.69145664572716,109.00145272813772,1,1,0,1
321,90,400,108.2,162.28508696891367,-29.51190025545654,1.05,0,471,0,1,0,0,1,1,100,402.70729660987854,192.37139133736494,1,1,0,1
322,91,50,-4.96,11.297610733658075,-18.887910442240536,1.05,0,53,0,1,0,0,1,1,100,51.18693918688223,36.533476288889865,1,1,0,1
322,92,50,-4.96,20.525095283985138,-7.318675621785225,1.05,0,53,0,1,0,0,1,1,100,43.730011803563684,7.191363049205393,1,1,0,1
322,93,50,-4.96,14.486598367244005,-10.452864234615118,1.05,0,53,0,1,0,0,1,1,100,52.41713734110818,4.930971000896424,1,1,0,1
322,94,50,-4.96,19.944282028079034,-9.079038623161612,1.05,0,53,0,1,0,0,1,1,100,52.76793803786859,6.16015987358008,1,1,0,1
322,95,50,-4.96,15.881923343241215,-17.350594858638946,1.05,0,53,0,1,0,0,1,1,100,52.55692681763321,1.4295542409020492,1,1,0,1
322,96,50,-4.96,11.33754313290119,-13.435494249034674,1.05,0,53,0,1,0,0,1,1,100,63.19763415725902,21.45092676859349,1,1,0,1
323,97,155,31.79,83.98878162354231,-48.457823960576206,1.05,0,182,0,1,0,0,1,1,100,145.98081845534034,40.25616844469914,1,1,0,1
323,98,155,31.79,91.45358668267727,-9.14431697176768,1.05,0,182,0,1,0,0,1,1,100,139.4923636277672,60.86493953883182,1,1,0,1
323,99,350,71.78,111.48879818385466,-29.083369809668525,1.05,0,412,0,1,0,0,1,1,100,256.6166957118548,45.247484767809425,1,1,0,1
0 / END OF GENERATOR DATA, BEGIN BRANCH DATA
101,102,1,0.003,0.014,0.461,210.0,231.6,240.0,0,0,0,0,1,1,0,1,1
101,103,1,0.055,0.211,0.057,210.0,249.6,264.0,0,0,0,0,1,1,0,1,1
101,105,1,0.022,0.085,0.023,210.0,249.6,264.0,0,0,0,0,1,1,0,1,1
102,104,1,0.033,0.127,0.034,210.0,249.6,264.0,0,0,0,0,1,1,0,1,1
102,106,1,0.05,0.192,0.052,210.0,249.6,264.0,0,0,0,0,1,1,0,1,1
103,109,1,0.031,0.119,0.032,210.0,249.6,264.0,0,0,0,0,1,1,0,1,1
104,109,1,0.027,0.104,0.028,210.0,249.6,264.0,0,0,0,0,1,1,0,1,1
105,110,1,0.023,0.088,0.024,210.0,249.6,264.0,0,0,0,0,1,1,0,1,1
106,110,1,0.014,0.061,2.459,210.0,231.6,240.0,0,0,0,0,1,1,0,1,1
107,108,1,0.016,0.061,0.017,210.0,249.6,264.0,0,0,0,0,1,1,0,1,1
107,203,1,0.042,0.161,0.044,210.0,249.6,264.0,0,0,0,0,1,1,0,1,1
108,109,1,0.043,0.165,0.045,210.0,249.6,264.0,0,0,0,0,1,1,0,1,1
108,110,1,0.043,0.165,0.045,210.0,249.6,264.0,0,0,0,0,1,1,0,1,1
111,113,1,0.006,0.048,0.1,600.0,720.0,750.0,0,0,0,0,1,1,0,1,1
111,114,1,0.005,0.042,0.088,600.0,720.0,750.0,0,0,0,0,1,1,0,1,1
112,113,1,0.006,0.048,0.1,600.0,720.0,750.0,0,0,0,0,1,1,0,1,1
112,123,1,0.012,0.097,0.203,600.0,720.0,750.0,0,0,0,0,1,1,0,1,1
113,123,1,0.011,0.087,0.182,600.0,720.0,750.0,0,0,0,0,1,1,0,1,1
113,215,1,0.01,0.075,0.158,600.0,720.0,750.0,0,0,0,0,1,1,0,1,1
114,116,1,0.005,0.059,0.082,600.0,720.0,750.0,0,0,0,0,1,1,0,1,1
115,116,1,0.002,0.017,0.036,600.0,720.0,750.0,0,0,0,0,1,1,0,1,1
115,121,1,0.006,0.049,0.103,600.0,720.0,750.0,0,0,0,0,1,1,0,1,1
115,121,2,0.006,0.049,0.103,600.0,720.0,750.0,0,0,0,0,1,1,0,1,1
115,124,1,0.007,0.052,0.109,600.0,720.0,750.0,0,0,0,0,1,1,0,1,1
116,117,1,0.003,0.026,0.055,600.0,720.0,750.0,0,0,0,0,1,1,0,1,1
116,119,1,0.003,0.023,0.049,600.0,720.0,750.0,0,0,0,0,1,1,0,1,1
117,118,1,0.002,0.014,0.03,600.0,720.0,750.0,0,0,0,0,1,1,0,1,1
117,122,1,0.014,0.105,0.221,600.0,720.0,750.0,0,0,0,0,1,1,0,1,1
118,121,1,0.003,0.026,0.055,600.0,720.0,750.0,0,0,0,0,1,1,0,1,1
118,121,2,0.003,0.026,0.055,600.0,720.0,750.0,0,0,0,0,1,1,0,1,1
119,120,1,0.005,0.04,0.083,600.0,720.0,750.0,0,0,0,0,1,1,0,1,1
119,120,2,0.005,0.04,0.083,600.0,720.0,750.0,0,0,0,0,1,1,0,1,1
120,123,1,0.003,0.022,0.046,600.0,720.0,750.0,0,0,0,0,1,1,0,1,1
120,123,2,0.003,0.022,0.046,600.0,720.0,750.0,0,0,0,0,1,1,0,1,1
121,122,1,0.009,0.068,0.142,600.0,720.0,750.0,0,0,0,0,1,1,0,1,1
123,217,1,0.01,0.074,0.155,600.0,720.0,750.0,0,0,0,0,1,1,0,1,1
201,202,1,0.003,0.014,0.461,210.0,231.6,240.0,0,0,0,0,1,1,0,1,1
201,203,1,0.055,0.211,0.057,210.0,249.6,264.0,0,0,0,0,1,1,0,1,1
201,205,1,0.022,0.085,0.023,210.0,249.6,264.0,0,0,0,0,1,1,0,1,1
202,204,1,0.033,0.127,0.034,210.0,249.6,264.0,0,0,0,0,1,1,0,1,1
202,206,1,0.05,0.192,0.052,210.0,249.6,264.0,0,0,0,0,1,1,0,1,1
203,209,1,0.031,0.119,0.032,210.0,249.6,264.0,0,0,0,0,1,1,0,1,1
204,209,1,0.027,0.104,0.028,210.0,249.6,264.0,0,0,0,0,1,1,0,1,1
205,210,1,0.023,0.088,0.024,210.0,249.6,264.0,0,0,0,0,1,1,0,1,1
206,210,1,0.014,0.061,2.459,210.0,231.6,240.0,0,0,0,0,1,1,0,1,1
207,208,1,0.016,0.061,0.017,210.0,249.6,264.0,0,0,0,0,1,1,0,1,1
208,209,1,0.043,0.165,0.045,210.0,249.6,264.0,0,0,0,0,1,1,0,1,1
208,210,1,0.043,0.165,0.045,210.0,249.6,264.0,0,0,0,0,1,1,0,1,1
211,213,1,0.006,0.048,0.1,600.0,720.0,750.0,0,0,0,0,1,1,0,1,1
211,214,1,0.005,0.042,0.088,600.0,720.0,750.0,0,0,0,0,1,1,0,1,1
212,213,1,0.006,0.048,0.1,600.0,720.0,750.0,0,0,0,0,1,1,0,1,1
212,223,1,0.012,0.097,0.203,600.0,720.0,750.0,0,0,0,0,1,1,0,1,1
213,223,1,0.011,0.087,0.182,600.0,720.0,750.0,0,0,0,0,1,1,0,1,1
214,216,1,0.005,0.059,0.082,600.0,720.0,750.0,0,0,0,0,1,1,0,1,1
215,216,1,0.002,0.017,0.036,600.0,720.0,750.0,0,0,0,0,1,1,0,1,1
215,221,1,0.006,0.049,0.103,600.0,720.0,750.0,0,0,0,0,1,1,0,1,1
215,221,2,0.006,0.049,0.103,600.0,720.0,750.0,0,0,0,0,1,1,0,1,1
215,224,1,0.007,0.052,0.109,600.0,720.0,750.0,0,0,0,0,1,1,0,1,1
216,217,1,0.003,0.026,0.055,600.0,720.0,750.0,0,0,0,0,1,1,0,1,1
216,219,1,0.003,0.023,0.049,600.0,720.0,750.0,0,0,0,0,1,1,0,1,1
217,218,1,0.002,0.014,0.03,600.0,720.0,750.0,0,0,0,0,1,1,0,1,1
217,222,1,0.014,0.105,0.221,600.0,720.0,750.0,0,0,0,0,1,1,0,1,1
218,221,1,0.003,0.026,0.055,600.0,720.0,750.0,0,0,0,0,1,1,0,1,1
218,221,2,0.003,0.026,0.055,600.0,720.0,750.0,0,0,0,0,1,1,0,1,1
219,220,1,0.005,0.04,0.083,600.0,720.0,750.0,0,0,0,0,1,1,0,1,1
219,220,2,0.005,0.04,0.083,600.0,720.0,750.0,0,0,0,0,1,1,0,1,1
220,223,1,0.003,0.022,0.046,600.0,720.0,750.0,0,0,0,0,1,1,0,1,1
220,223,2,0.003,0.022,0.046,600.0,720.0,750.0,0,0,0,0,1,1,0,1,1
221,222,1,0.009,0.068,0.142,600.0,720.0,750.0,0,0,0,0,1,1,0,1,1
301,302,1,0.003,0.014,0.461,210.0,231.6,240.0,0,0,0,0,1,1,0,1,1
301,303,1,0.055,0.211,0.057,210.0,249.6,264.0,0,0,0,0,1,1,0,1,1
301,305,1,0.022,0.085,0.023,210.0,249.6,264.0,0,0,0,0,1,1,0,1,1
302,304,1,0.033,0.127,0.034,210.0,249.6,264.0,0,0,0,0,1,1,0,1,1
302,306,1,0.05,0.192,0.052,210.0,249.6,264.0,0,0,0,0,1,1,0,1,1
303,309,1,0.031,0.119,0.032,210.0,249.6,264.0,0,0,0,0,1,1,0,1,1
304,309,1,0.027,0.104,0.028,210.0,249.6,264.0,0,0,0,0,1,1,0,1,1
305,310,1,0.023,0.088,0.024,210.0,249.6,264.0,0,0,0,0,1,1,0,1,1
306,310,1,0.014,0.061,2.459,210.0,231.6,240.0,0,0,0,0,1,1,0,1,1
307,308,1,0.016,0.061,0.017,210.0,249.6,264.0,0,0,0,0,1,1,0,1,1
308,309,1,0.043,0.165,0.045,210.0,249.6,264.0,0,0,0,0,1,1,0,1,1
308,310,1,0.043,0.165,0.045,210.0,249.6,264.0,0,0,0,0,1,1,0,1,1
311,313,1,0.006,0.048,0.1,600.0,720.0,750.0,0,0,0,0,1,1,0,1,1
311,314,1,0.005,0.042,0.088,600.0,720.0,750.0,0,0,0,0,1,1,0,1,1
312,313,1,0.006,0.048,0.1,600.0,720.0,750.0,0,0,0,0,1,1,0,1,1
312,323,1,0.012,0.097,0.203,600.0,720.0,750.0,0,0,0,0,1,1,0,1,1
313,323,1,0.011,0.087,0.182,600.0,720.0,750.0,0,0,0,0,1,1,0,1,1
314,316,1,0.005,0.059,0.082,600.0,720.0,750.0,0,0,0,0,1,1,0,1,1
315,316,1,0.002,0.017,0.036,600.0,720.0,750.0,0,0,0,0,1,1,0,1,1
315,321,1,0.006,0.049,0.103,600.0,720.0,750.0,0,0,0,0,1,1,0,1,1
315,321,2,0.006,0.049,0.103,600.0,720.0,750.0,0,0,0,0,1,1,0,1,1
315,324,1,0.007,0.052,0.109,600.0,720.0,750.0,0,0,0,0,1,1,0,1,1
316,317,1,0.003,0.026,0.055,600.0,720.0,750.0,0,0,0,0,1,1,0,1,1
316,319,1,0.003,0.023,0.049,600.0,720.0,750.0,0,0,0,0,1,1,0,1,1
317,318,1,0.002,0.014,0.03,600.0,720.0,750.0,0,0,0,0,1,1,0,1,1
317,322,1,0.014,0.105,0.221,600.0,720.0,750.0,0,0,0,0,1,1,0,1,1
318,223,1,0.013,0.104,0.218,600.0,720.0,750.0,0,0,0,0,1,1,0,1,1
318,321,1,0.003,0.026,0.055,600.0,720.0,750.0,0,0,0,0,1,1,0,1,1
318,321,2,0.003,0.026,0.055,600.0,720.0,750.0,0,0,0,0,1,1,0,1,1
319,320,1,0.005,0.04,0.083,600.0,720.0,750.0,0,0,0,0,1,1,0,1,1
319,320,2,0.005,0.04,0.083,600.0,720.0,750.0,0,0,0,0,1,1,0,1,1
320,323,1,0.003,0.022,0.046,600.0,720.0,750.0,0,0,0,0,1,1,0,1,1
320,323,2,0.003,0.022,0.046,600.0,720.0,750.0,0,0,0,0,1,1,0,1,1
321,322,1,0.009,0.068,0.142,600.0,720.0,750.0,0,0,0,0,1,1,0,1,1
323,325,1,0,0.009,0,866.4,1071.6,1071.6,0,0,0,0,1,1,0,1,1
0 / END OF BRANCH DATA, BEGIN TRANSFORMER DATA
  103 ,  124 , 0,  1 , 1, 1, 1, 0, 0, 2, '            ',  1 , 1, 1
   0.002000 ,  0.084000 ,  100.000000
   1.015000 , 0,  0.000000 ,  400.000000 ,  510.000000 ,  600.000000 , 0, 0,  1.10 ,  0.90 ,  1.10 ,  0.90 , 33, 0, 0, 0
   1.000000, 0
  109 ,  111 , 0,  1 , 1, 1, 1, 0, 0, 2, '            ',  1 , 1, 1
   0.002000 ,  0.084000 ,  100.000000
   1.030000 , 0,  0.000000 ,  400.000000 ,  510.000000 ,  600.000000 , 0, 0,  1.10 ,  0.90 ,  1.10 ,  0.90 , 33, 0, 0, 0
   1.000000, 0
  109 ,  112 , 0,  1 , 1, 1, 1, 0, 0, 2, '            ',  1 , 1, 1
   0.002000 ,  0.084000 ,  100.000000
   1.030000 , 0,  0.000000 ,  400.000000 ,  510.000000 ,  600.000000 , 0, 0,  1.10 ,  0.90 ,  1.10 ,  0.90 , 33, 0, 0, 0
   1.000000, 0
  110 ,  111 , 0,  1 , 1, 1, 1, 0, 0, 2, '            ',  1 , 1, 1
   0.002000 ,  0.084000 ,  100.000000
   1.015000 , 0,  0.000000 ,  400.000000 ,  510.000000 ,  600.000000 , 0, 0,  1.10 ,  0.90 ,  1.10 ,  0.90 , 33, 0, 0, 0
   1.000000, 0
  110 ,  112 , 0,  1 , 1, 1, 1, 0, 0, 2, '            ',  1 , 1, 1
   0.002000 ,  0.084000 ,  100.000000
   1.015000 , 0,  0.000000 ,  400.000000 ,  510.000000 ,  600.000000 , 0, 0,  1.10 ,  0.90 ,  1.10 ,  0.90 , 33, 0, 0, 0
   1.000000, 0
  203 ,  224 , 0,  1 , 1, 1, 1, 0, 0, 2, '            ',  1 , 1, 1
   0.002000 ,  0.084000 ,  100.000000
   1.015000 , 0,  0.000000 ,  400.000000 ,  510.000000 ,  600.000000 , 0, 0,  1.10 ,  0.90 ,  1.10 ,  0.90 , 33, 0, 0, 0
   1.000000, 0
  209 ,  211 , 0,  1 , 1, 1, 1, 0, 0, 2, '            ',  1 , 1, 1
   0.002000 ,  0.084000 ,  100.000000
   1.030000 , 0,  0.000000 ,  400.000000 ,  510.000000 ,  600.000000 , 0, 0,  1.10 ,  0.90 ,  1.10 ,  0.90 , 33, 0, 0, 0
   1.000000, 0
  209 ,  212 , 0,  1 , 1, 1, 1, 0, 0, 2, '            ',  1 , 1, 1
   0.002000 ,  0.084000 ,  100.000000
   1.030000 , 0,  0.000000 ,  400.000000 ,  510.000000 ,  600.000000 , 0, 0,  1.10 ,  0.90 ,  1.10 ,  0.90 , 33, 0, 0, 0
   1.000000, 0
  210 ,  211 , 0,  1 , 1, 1, 1, 0, 0, 2, '            ',  1 , 1, 1
   0.002000 ,  0.084000 ,  100.000000
   1.015000 , 0,  0.000000 ,  400.000000 ,  510.000000 ,  600.000000 , 0, 0,  1.10 ,  0.90 ,  1.10 ,  0.90 , 33, 0, 0, 0
   1.000000, 0
  210 ,  212 , 0,  1 , 1, 1, 1, 0, 0, 2, '            ',  1 , 1, 1
   0.002000 ,  0.084000 ,  100.000000
   1.015000 , 0,  0.000000 ,  400.000000 ,  510.000000 ,  600.000000 , 0, 0,  1.10 ,  0.90 ,  1.10 ,  0.90 , 33, 0, 0, 0
   1.000000, 0
  303 ,  324 , 0,  1 , 1, 1, 1, 0, 0, 2, '            ',  1 , 1, 1
   0.002000 ,  0.084000 ,  100.000000
   1.015000 , 0,  0.000000 ,  400.000000 ,  510.000000 ,  600.000000 , 0, 0,  1.10 ,  0.90 ,  1.10 ,  0.90 , 33, 0, 0, 0
   1.000000, 0
  309 ,  311 , 0,  1 , 1, 1, 1, 0, 0, 2, '            ',  1 , 1, 1
   0.002000 ,  0.084000 ,  100.000000
   1.030000 , 0,  0.000000 ,  400.000000 ,  510.000000 ,  600.000000 , 0, 0,  1.10 ,  0.90 ,  1.10 ,  0.90 , 33, 0, 0, 0
   1.000000, 0
  309 ,  312 , 0,  1 , 1, 1, 1, 0, 0, 2, '            ',  1 , 1, 1
   0.002000 ,  0.084000 ,  100.000000
   1.030000 , 0,  0.000000 ,  400.000000 ,  510.000000 ,  600.000000 , 0, 0,  1.10 ,  0.90 ,  1.10 ,  0.90 , 33, 0, 0, 0
   1.000000, 0
  310 ,  311 , 0,  1 , 1, 1, 1, 0, 0, 2, '            ',  1 , 1, 1
   0.002000 ,  0.084000 ,  100.000000
   1.015000 , 0,  0.000000 ,  400.000000 ,  510.000000 ,  600.000000 , 0, 0,  1.10 ,  0.90 ,  1.10 ,  0.90 , 33, 0, 0, 0
   1.000000, 0
  310 ,  312 , 0,  1 , 1, 1, 1, 0, 0, 2, '            ',  1 , 1, 1
   0.002000 ,  0.084000 ,  100.000000
   1.015000 , 0,  0.000000 ,  400.000000 ,  510.000000 ,  600.000000 , 0, 0,  1.10 ,  0.90 ,  1.10 ,  0.90 , 33, 0, 0, 0
   1.000000, 0
0 / END OF TRANSFORMER DATA, BEGIN AREA DATA
0 / END OF AREA DATA, BEGIN TWO-TERMINAL DC DATA
0 / END OF TWO-TERMINAL DC DATA, BEGIN VSC DC LINE DATA
0 / END OF VSC DC LINE DATA, BEGIN SWITCHED SHUNT DATA
0 / END OF SWITCHED SHUNT DATA, BEGIN IMPEDANCE CORRECTION DATA
0 / END OF IMPEDANCE CORRECTION DATA, BEGIN MULTI-TERMINAL DC DATA
0 / END OF MULTI-TERMINAL DC DATA, BEGIN MULTI-SECTION LINE DATA
0 / END OF MULTI-SECTION LINE DATA, BEGIN ZONE DATA
0 / END OF ZONE DATA, BEGIN INTER-AREA TRANSFER DATA
0 / END OF INTER-AREA TRANSFER DATA, BEGIN OWNER DATA
0 / END OF OWNER DATA, BEGIN FACTS CONTROL DEVICE DATA
0 / END OF FACTS CONTROL DEVICE DATA
0 / END OF SWITCHED SHUNT DATA, BEGIN GNE DATA
0 / END OF GNE DATA, BEGIN INDUCTION MACHINE DATA
0 / END OF INDUCTION MACHINE DATA
Q 
